instances/data_GOC/Phase_0_Modified_RTS96/scenario_29/powersystem.raw
 0,  100.000000
rts96_spring_wday.raw / File written by to_psse.gms
5 / 19 / 2015
101, ' 101 ',138,2,1,1,1,1.00,0.00,1.1,0.9,1.1,0.9
102, ' 102 ',138,2,1,1,1,1.00,0.00,1.1,0.9,1.1,0.9
103, ' 103 ',138,1,1,1,1,1.00,0.00,1.1,0.9,1.1,0.9
104, ' 104 ',138,1,1,1,1,1.00,0.00,1.1,0.9,1.1,0.9
105, ' 105 ',138,1,1,1,1,1.00,0.00,1.1,0.9,1.1,0.9
106, ' 106 ',138,1,1,1,1,1.00,0.00,1.1,0.9,1.1,0.9
107, ' 107 ',138,2,1,1,1,1.00,0.00,1.1,0.9,1.1,0.9
108, ' 108 ',138,1,1,1,1,1.00,0.00,1.1,0.9,1.1,0.9
109, ' 109 ',138,1,1,1,1,1.00,0.00,1.1,0.9,1.1,0.9
110, ' 110 ',138,1,1,1,1,1.00,0.00,1.1,0.9,1.1,0.9
111, ' 111 ',230,1,1,1,1,1.00,0.00,1.1,0.9,1.1,0.9
112, ' 112 ',230,1,1,1,1,1.00,0.00,1.1,0.9,1.1,0.9
113, ' 113 ',230,3,1,1,1,1.00,0.00,1.1,0.9,1.1,0.9
114, ' 114 ',230,2,1,1,1,1.00,0.00,1.1,0.9,1.1,0.9
115, ' 115 ',230,2,1,1,1,1.00,0.00,1.1,0.9,1.1,0.9
116, ' 116 ',230,2,1,1,1,1.00,0.00,1.1,0.9,1.1,0.9
117, ' 117 ',230,1,1,1,1,1.00,0.00,1.1,0.9,1.1,0.9
118, ' 118 ',230,2,1,1,1,1.00,0.00,1.1,0.9,1.1,0.9
119, ' 119 ',230,1,1,1,1,1.00,0.00,1.1,0.9,1.1,0.9
120, ' 120 ',230,1,1,1,1,1.00,0.00,1.1,0.9,1.1,0.9
121, ' 121 ',230,2,1,1,1,1.00,0.00,1.1,0.9,1.1,0.9
122, ' 122 ',230,2,1,1,1,1.00,0.00,1.1,0.9,1.1,0.9
123, ' 123 ',230,2,1,1,1,1.00,0.00,1.1,0.9,1.1,0.9
124, ' 124 ',230,1,1,1,1,1.00,0.00,1.1,0.9,1.1,0.9
201, ' 201 ',138,2,1,1,1,1.00,0.00,1.1,0.9,1.1,0.9
202, ' 202 ',138,2,1,1,1,1.00,0.00,1.1,0.9,1.1,0.9
203, ' 203 ',138,1,1,1,1,1.00,0.00,1.1,0.9,1.1,0.9
204, ' 204 ',138,1,1,1,1,1.00,0.00,1.1,0.9,1.1,0.9
205, ' 205 ',138,1,1,1,1,1.00,0.00,1.1,0.9,1.1,0.9
206, ' 206 ',138,1,1,1,1,1.00,0.00,1.1,0.9,1.1,0.9
207, ' 207 ',138,2,1,1,1,1.00,0.00,1.1,0.9,1.1,0.9
208, ' 208 ',138,1,1,1,1,1.00,0.00,1.1,0.9,1.1,0.9
209, ' 209 ',138,1,1,1,1,1.00,0.00,1.1,0.9,1.1,0.9
210, ' 210 ',138,1,1,1,1,1.00,0.00,1.1,0.9,1.1,0.9
211, ' 211 ',230,1,1,1,1,1.00,0.00,1.1,0.9,1.1,0.9
212, ' 212 ',230,1,1,1,1,1.00,0.00,1.1,0.9,1.1,0.9
213, ' 213 ',230,2,1,1,1,1.00,0.00,1.1,0.9,1.1,0.9
214, ' 214 ',230,2,1,1,1,1.00,0.00,1.1,0.9,1.1,0.9
215, ' 215 ',230,2,1,1,1,1.00,0.00,1.1,0.9,1.1,0.9
216, ' 216 ',230,2,1,1,1,1.00,0.00,1.1,0.9,1.1,0.9
217, ' 217 ',230,1,1,1,1,1.00,0.00,1.1,0.9,1.1,0.9
218, ' 218 ',230,2,1,1,1,1.00,0.00,1.1,0.9,1.1,0.9
219, ' 219 ',230,1,1,1,1,1.00,0.00,1.1,0.9,1.1,0.9
220, ' 220 ',230,1,1,1,1,1.00,0.00,1.1,0.9,1.1,0.9
221, ' 221 ',230,2,1,1,1,1.00,0.00,1.1,0.9,1.1,0.9
222, ' 222 ',230,2,1,1,1,1.00,0.00,1.1,0.9,1.1,0.9
223, ' 223 ',230,2,1,1,1,1.00,0.00,1.1,0.9,1.1,0.9
224, ' 224 ',230,1,1,1,1,1.00,0.00,1.1,0.9,1.1,0.9
301, ' 301 ',138,2,1,1,1,1.00,0.00,1.1,0.9,1.1,0.9
302, ' 302 ',138,2,1,1,1,1.00,0.00,1.1,0.9,1.1,0.9
303, ' 303 ',138,1,1,1,1,1.00,0.00,1.1,0.9,1.1,0.9
304, ' 304 ',138,1,1,1,1,1.00,0.00,1.1,0.9,1.1,0.9
305, ' 305 ',138,1,1,1,1,1.00,0.00,1.1,0.9,1.1,0.9
306, ' 306 ',138,1,1,1,1,1.00,0.00,1.1,0.9,1.1,0.9
307, ' 307 ',138,2,1,1,1,1.00,0.00,1.1,0.9,1.1,0.9
308, ' 308 ',138,1,1,1,1,1.00,0.00,1.1,0.9,1.1,0.9
309, ' 309 ',138,1,1,1,1,1.00,0.00,1.1,0.9,1.1,0.9
310, ' 310 ',138,1,1,1,1,1.00,0.00,1.1,0.9,1.1,0.9
311, ' 311 ',230,1,1,1,1,1.00,0.00,1.1,0.9,1.1,0.9
312, ' 312 ',230,1,1,1,1,1.00,0.00,1.1,0.9,1.1,0.9
313, ' 313 ',230,2,1,1,1,1.00,0.00,1.1,0.9,1.1,0.9
314, ' 314 ',230,2,1,1,1,1.00,0.00,1.1,0.9,1.1,0.9
315, ' 315 ',230,2,1,1,1,1.00,0.00,1.1,0.9,1.1,0.9
316, ' 316 ',230,2,1,1,1,1.00,0.00,1.1,0.9,1.1,0.9
317, ' 317 ',230,1,1,1,1,1.00,0.00,1.1,0.9,1.1,0.9
318, ' 318 ',230,2,1,1,1,1.00,0.00,1.1,0.9,1.1,0.9
319, ' 319 ',230,1,1,1,1,1.00,0.00,1.1,0.9,1.1,0.9
320, ' 320 ',230,1,1,1,1,1.00,0.00,1.1,0.9,1.1,0.9
321, ' 321 ',230,2,1,1,1,1.00,0.00,1.1,0.9,1.1,0.9
322, ' 322 ',230,2,1,1,1,1.00,0.00,1.1,0.9,1.1,0.9
323, ' 323 ',230,2,1,1,1,1.00,0.00,1.1,0.9,1.1,0.9
324, ' 324 ',230,1,1,1,1,1.00,0.00,1.1,0.9,1.1,0.9
325, ' 325 ',230,1,1,1,1,1.00,0.00,1.1,0.9,1.1,0.9
0 / END OF BUS DATA, BEGIN LOAD DATA
101, '1 ',1,11,11,65.28261656035558,14.874310374417343,0.0,0.0,0.0,0.0,1,1,0
102, '1 ',1,11,12,74.57938110890645,11.199133897874503,0.0,0.0,0.0,0.0,1,1,0
103, '1 ',1,11,11,109.3243217746904,20.565198399181615,0.0,0.0,0.0,0.0,1,1,0
104, '1 ',1,11,11,43.45885238964278,10.23443758514151,0.0,0.0,0.0,0.0,1,1,0
105, '1 ',1,11,11,41.52812944494705,10.909264739283453,0.0,0.0,0.0,0.0,1,1,0
106, '1 ',1,11,12,91.40082523753122,22.591976304156706,0.0,0.0,0.0,0.0,1,1,0
107, '1 ',1,11,12,107.93360716620809,19.84406993697281,0.0,0.0,0.0,0.0,1,1,0
108, '1 ',1,11,12,144.97468710742424,18.251252739049495,0.0,0.0,0.0,0.0,1,1,0
109, '1 ',1,11,13,142.82227210140323,29.13571308823619,0.0,0.0,0.0,0.0,1,1,0
110, '1 ',1,11,13,125.39381495584873,24.739678654856977,0.0,0.0,0.0,0.0,1,1,0
111, '1 ',1,11,13,0.0,0.0,0.0,0.0,0.0,0.0,1,1,0
112, '1 ',1,11,13,0.0,0.0,0.0,0.0,0.0,0.0,1,1,0
113, '1 ',1,12,14,181.48034804991937,36.63425937355337,0.0,0.0,0.0,0.0,1,1,0
114, '1 ',1,12,16,123.019657882242,30.27407535796794,0.0,0.0,0.0,0.0,1,1,0
115, '1 ',1,12,16,195.1904690261589,54.5816264960289,0.0,0.0,0.0,0.0,1,1,0
116, '1 ',1,12,16,67.79222554711158,12.16985817993991,0.0,0.0,0.0,0.0,1,1,0
117, '1 ',1,12,17,0.0,0.0,0.0,0.0,0.0,0.0,1,1,0
118, '1 ',1,12,17,214.97361779333744,44.50156340698768,0.0,0.0,0.0,0.0,1,1,0
119, '1 ',1,12,15,125.52632815448278,20.292812709260122,0.0,0.0,0.0,0.0,1,1,0
120, '1 ',1,12,15,86.44893038506508,16.727850024726614,0.0,0.0,0.0,0.0,1,1,0
121, '1 ',1,12,17,0.0,0.0,0.0,0.0,0.0,0.0,1,1,0
122, '1 ',1,12,17,0.0,0.0,0.0,0.0,0.0,0.0,1,1,0
123, '1 ',1,12,15,0.0,0.0,0.0,0.0,0.0,0.0,1,1,0
124, '1 ',1,12,16,0.0,0.0,0.0,0.0,0.0,0.0,1,1,0
201, '1 ',1,21,21,69.761215294802,18.52752670935262,0.0,0.0,0.0,0.0,1,1,0
202, '1 ',1,21,22,79.58948137873183,14.257182421853766,0.0,0.0,0.0,0.0,1,1,0
203, '1 ',1,21,21,142.11334942499454,31.794557772289217,0.0,0.0,0.0,0.0,1,1,0
204, '1 ',1,21,21,65.42966550333314,11.61716145666735,0.0,0.0,0.0,0.0,1,1,0
205, '1 ',1,21,21,53.70600363860988,8.861834315564018,0.0,0.0,0.0,0.0,1,1,0
206, '1 ',1,21,22,113.1693785067335,21.2093884030737,0.0,0.0,0.0,0.0,1,1,0
207, '1 ',1,21,22,78.009287327528,15.261756740449925,0.0,0.0,0.0,0.0,1,1,0
208, '1 ',1,21,22,140.91165272110774,22.981959688770118,0.0,0.0,0.0,0.0,1,1,0
209, '1 ',1,21,23,125.85878333420611,32.42266052404046,0.0,0.0,0.0,0.0,1,1,0
210, '1 ',1,21,23,152.95032559730274,21.350934838587417,0.0,0.0,0.0,0.0,1,1,0
211, '1 ',1,21,23,0.0,0.0,0.0,0.0,0.0,0.0,1,1,0
212, '1 ',1,21,23,0.0,0.0,0.0,0.0,0.0,0.0,1,1,0
213, '1 ',1,22,24,226.78588511714946,40.54531362343049,0.0,0.0,0.0,0.0,1,1,0
214, '1 ',1,22,26,148.5434278923098,30.905832050923117,0.0,0.0,0.0,0.0,1,1,0
215, '1 ',1,22,26,238.8372574465442,38.090256575328105,0.0,0.0,0.0,0.0,1,1,0
216, '1 ',1,22,26,72.10047866315581,13.874242053257301,0.0,0.0,0.0,0.0,1,1,0
217, '1 ',1,22,27,0.0,0.0,0.0,0.0,0.0,0.0,1,1,0
218, '1 ',1,22,27,202.54147554553464,40.59439798415155,0.0,0.0,0.0,0.0,1,1,0
219, '1 ',1,22,25,133.5718824192584,22.964271969872758,0.0,0.0,0.0,0.0,1,1,0
220, '1 ',1,22,25,91.68588085078598,16.772709077382927,0.0,0.0,0.0,0.0,1,1,0
221, '1 ',1,22,27,0.0,0.0,0.0,0.0,0.0,0.0,1,1,0
222, '1 ',1,22,27,0.0,0.0,0.0,0.0,0.0,0.0,1,1,0
223, '1 ',1,22,25,0.0,0.0,0.0,0.0,0.0,0.0,1,1,0
224, '1 ',1,22,26,0.0,0.0,0.0,0.0,0.0,0.0,1,1,0
301, '1 ',1,31,31,87.55127977487146,13.506030440542103,0.0,0.0,0.0,0.0,1,1,0
302, '1 ',1,31,32,71.48444832807296,12.670655331423506,0.0,0.0,0.0,0.0,1,1,0
303, '1 ',1,31,31,102.81148730236384,30.555519767484768,0.0,0.0,0.0,0.0,1,1,0
304, '1 ',1,31,31,61.80854315098459,7.401438062315107,0.0,0.0,0.0,0.0,1,1,0
305, '1 ',1,31,31,60.373757014814394,8.802038950606807,0.0,0.0,0.0,0.0,1,1,0
306, '1 ',1,31,32,98.88727714009099,17.928788639120757,0.0,0.0,0.0,0.0,1,1,0
307, '1 ',1,31,32,65.49620999882463,13.749765368200604,0.0,0.0,0.0,0.0,1,1,0
308, '1 ',1,31,32,117.78364769576183,30.428292997688754,0.0,0.0,0.0,0.0,1,1,0
309, '1 ',1,31,33,145.15413544601296,25.27138357319869,0.0,0.0,0.0,0.0,1,1,0
310, '1 ',1,31,33,147.44449843584908,35.79244608845003,0.0,0.0,0.0,0.0,1,1,0
311, '1 ',1,31,33,0.0,0.0,0.0,0.0,0.0,0.0,1,1,0
312, '1 ',1,31,33,0.0,0.0,0.0,0.0,0.0,0.0,1,1,0
313, '1 ',1,32,34,212.7805833927908,39.50750824138373,0.0,0.0,0.0,0.0,1,1,0
314, '1 ',1,32,36,94.27423607445806,28.246869486495015,0.0,0.0,0.0,0.0,1,1,0
315, '1 ',1,32,36,179.62557524933672,44.666420556163786,0.0,0.0,0.0,0.0,1,1,0
316, '1 ',1,32,36,81.90081982238218,15.395105025577358,0.0,0.0,0.0,0.0,1,1,0
317, '1 ',1,32,37,0.0,0.0,0.0,0.0,0.0,0.0,1,1,0
318, '1 ',1,32,37,228.64719516039438,49.00224974541273,0.0,0.0,0.0,0.0,1,1,0
319, '1 ',1,32,35,158.17488680192244,27.47442948540081,0.0,0.0,0.0,0.0,1,1,0
320, '1 ',1,32,35,96.6062994321048,19.436668254164235,0.0,0.0,0.0,0.0,1,1,0
321, '1 ',1,32,37,0.0,0.0,0.0,0.0,0.0,0.0,1,1,0
322, '1 ',1,32,37,0.0,0.0,0.0,0.0,0.0,0.0,1,1,0
323, '1 ',1,32,35,0.0,0.0,0.0,0.0,0.0,0.0,1,1,0
324, '1 ',1,32,36,0.0,0.0,0.0,0.0,0.0,0.0,1,1,0
325, '1 ',1,32,35,0.0,0.0,0.0,0.0,0.0,0.0,1,1,0
0 / END OF LOAD DATA, BEGIN FIXED SHUNT DATA
0 / END OF FIXED SHUNT DATA, BEGIN GENERATOR DATA
101,1,10,0,11.65733500290662,1.142790237441659,1.035,0,24,0,1,0,0,1,1,100,16.615167301148176,12.922891922248528,1,1,0,1
101,2,10,0,11.490296094678342,-1.3140522809699178,1.035,0,24,0,1,0,0,1,1,100,21.174621179699898,15.941486445767806,1,1,0,1
101,3,76,14.1,24.84263104666024,-13.75257021421567,1.035,0,89,0,1,0,0,1,1,100,98.43311451263727,41.27177995614709,1,1,0,1
101,4,76,14.1,32.94427236914635,-31.808495701290667,1.035,0,89,0,1,0,0,1,1,100,59.889947270229456,50.54918409493041,1,1,0,1
102,5,10,0,11.541178669780493,4.292628921568394,1.035,0,24,0,1,0,0,1,1,100,25.821571247652173,22.702204727251083,1,1,0,1
102,6,10,0,10.713609563652426,3.011242662090809,1.035,0,24,0,1,0,0,1,1,100,14.433601933531461,10.229328726138919,1,1,0,1
102,7,76,7,32.49116054736078,-6.758689786773175,1.035,0,89,0,1,0,0,1,1,100,84.30714824274183,34.048488689064996,1,1,0,1
102,8,76,7,38.78425601916388,-30.46028782357463,1.035,0,89,0,1,0,0,1,1,100,59.807688671164215,16.6654931574597,1,1,0,1
107,9,80,17.2,60.82116196118295,1.1933481087908149,1.025,0,118,0,1,0,0,1,1,100,106.5129979327321,24.74251209408976,1,1,0,1
107,10,80,17.2,75.22181488294154,28.452613013796515,1.025,0,118,0,1,0,0,1,1,100,91.06001508887857,34.56624095444568,1,1,0,1
107,11,80,17.2,66.86947946995497,-1.1031123362481594,1.025,0,118,0,1,0,0,1,1,100,76.53720632195473,25.736151854344534,1,1,0,1
113,12,95.1,40.7,75.42935721948743,10.948217064142227,1.02,0,232,0,1,0,0,1,1,100,200.68974107680845,49.40791336738272,1,1,0,1
113,13,95.1,40.7,62.520155631005764,-2.8906914107501507,1.02,0,232,0,1,0,0,1,1,100,163.15773829785175,37.817730001287984,1,1,0,1
113,14,95.1,40.7,69.202342312783,6.100755840539939,1.02,0,232,0,1,0,0,1,1,100,151.51749901371076,24.008095842886235,1,1,0,1
114,15,0,13.7,189.85833304934204,-116.4761421107687,0.98,0,100,0,1,0,0,1,1,100,0.0,0.0,1,1,0,1
115,16,12,0,5.9135687607340515,-1.2300854589790111,1.014,0,14,0,1,0,0,1,1,100,15.419677495211362,5.586296841949224,1,1,0,1
115,17,12,0,6.631845893058927,-0.8223048537969593,1.014,0,14,0,1,0,0,1,1,100,10.879400676861405,1.8244509022682909,1,1,0,1
115,18,12,0,5.014871492888778,0.1968496514484288,1.014,0,14,0,1,0,0,1,1,100,14.212734953686594,4.094369195625186,1,1,0,1
115,19,12,0,6.026718413550406,-0.5174408624880016,1.014,0,14,0,1,0,0,1,1,100,11.03508227560669,0.7062668349221326,1,1,0,1
115,20,12,0,6.08410733146593,-0.7390261287800968,1.014,0,14,0,1,0,0,1,1,100,10.204465698637067,1.1295746226981276,1,1,0,1
115,21,155,0.05,62.73680455982685,-67.64861264685169,1.014,0,182,0,1,0,0,1,1,100,170.6708504713606,96.47697333068355,1,1,0,1
116,22,155,25.22,72.73800506815314,-32.52742354432121,1.017,0,182,0,1,0,0,1,1,100,190.14819179964252,89.30140023971909,1,1,0,1
118,23,400,137.4,258.2552999537438,48.88137795962396,1.05,0,471,0,1,0,0,1,1,100,311.95293571799994,94.70726733095947,1,1,0,1
121,24,400,108.2,212.43305520154533,-70.37725617876279,1.05,0,471,0,1,0,0,1,1,100,469.2002968862653,254.22651301138106,1,1,0,1
122,25,50,-4.96,12.886050927639007,-11.696333723235876,1.05,0,53,0,1,0,0,1,1,100,41.239708724897355,0.6239941972307861,1,1,0,1
122,26,50,-4.96,11.30511794388294,-18.685712245851757,1.05,0,53,0,1,0,0,1,1,100,48.02208994748071,3.369532439413011,1,1,0,1
122,27,50,-4.96,20.21532500460744,-12.565430439729244,1.05,0,53,0,1,0,0,1,1,100,51.891855434514575,4.673199858516448,1,1,0,1
122,28,50,-4.96,13.112921714782715,-19.744560819864276,1.05,0,53,0,1,0,0,1,1,100,36.231038020923734,21.993025250735148,1,1,0,1
122,29,50,-4.96,15.118723949044943,-5.201039565540848,1.05,0,53,0,1,0,0,1,1,100,36.069084578193724,33.748904503223436,1,1,0,1
122,30,50,-4.96,16.408292367309333,-17.128081668447702,1.05,0,53,0,1,0,0,1,1,100,51.81090735830367,3.14863215666265,1,1,0,1
123,31,155,31.79,62.690206564962864,-86.76159122912213,1.05,0,182,0,1,0,0,1,1,100,191.91197344195098,108.46324231494218,1,1,0,1
123,32,155,31.79,76.24222698062658,-40.79550370760262,1.05,0,182,0,1,0,0,1,1,100,111.328478845302,90.95621454212025,1,1,0,1
123,33,350,71.78,187.87635391345248,24.640097121009603,1.05,0,412,0,1,0,0,1,1,100,317.0211287634447,94.95410271827134,1,1,0,1
201,34,10,0,11.496590310242027,1.5743145528249443,1.035,0,24,0,1,0,0,1,1,100,17.16253212094307,12.528747574714945,1,1,0,1
201,35,10,0,7.946219812612981,-2.5236801928840578,1.035,0,24,0,1,0,0,1,1,100,24.039539467543367,20.729190374528994,1,1,0,1
201,36,76,14.1,29.445806252304465,-30.235513589577756,1.035,0,89,0,1,0,0,1,1,100,69.70891164112837,7.829552853591757,1,1,0,1
201,37,76,14.1,33.45092215994373,-17.45017924858257,1.035,0,89,0,1,0,0,1,1,100,61.889774332940576,6.807915936857462,1,1,0,1
202,38,10,0,10.840562218334526,0.9927940866909921,1.035,0,24,0,1,0,0,1,1,100,20.72439661063254,16.320955368252474,1,1,0,1
202,39,10,0,7.886837610509247,-3.7362358029931784,1.035,0,24,0,1,0,0,1,1,100,18.12709301430732,14.277413223050536,1,1,0,1
202,40,76,7,25.1764272688888,-19.105391591088846,1.035,0,89,0,1,0,0,1,1,100,79.22804495934396,25.782435460127886,1,1,0,1
202,41,76,7,22.24098885152489,-17.464294055011116,1.035,0,89,0,1,0,0,1,1,100,62.8805656183511,1.7028559824079323,1,1,0,1
207,42,80,17.2,50.59100155625492,-26.024644606746747,1.025,0,118,0,1,0,0,1,1,100,119.08093868754803,53.270962329115704,1,1,0,1
207,43,80,17.2,44.942769904620945,-25.25941904168576,1.025,0,118,0,1,0,0,1,1,100,97.1372380014509,9.23463441664353,1,1,0,1
207,44,80,17.2,51.50240560993552,3.1696720300242305,1.025,0,118,0,1,0,0,1,1,100,120.86197123862803,30.696968113770694,1,1,0,1
213,45,95.1,40.7,89.70910350978374,-7.086075212806463,1.02,0,232,0,1,0,0,1,1,100,189.15912485751323,77.83596942723028,1,1,0,1
213,46,95.1,40.7,56.17118562012911,-18.34295165911317,1.02,0,232,0,1,0,0,1,1,100,195.13587320023214,83.89267592326502,1,1,0,1
213,47,95.1,40.7,66.9642889611423,-19.119965326040983,1.02,0,232,0,1,0,0,1,1,100,255.26176217659375,95.81945514600955,1,1,0,1
214,48,0,13.68,179.55363981425762,-81.9074095855467,0.98,0,100,0,1,0,0,1,1,100,0.0,0.0,1,1,0,1
215,49,12,0,6.6604090838693075,-0.37296264292672276,1.014,0,14,0,1,0,0,1,1,100,10.05246523898095,2.306000077687206,1,1,0,1
215,50,12,0,7.573660411778838,0.5201724828220904,1.014,0,14,0,1,0,0,1,1,100,14.41750358249992,7.601842002533376,1,1,0,1
215,51,12,0,5.764933400508017,0.5648600715212524,1.014,0,14,0,1,0,0,1,1,100,10.915220946259797,3.3685694842413083,1,1,0,1
215,52,12,0,7.141631314437837,0.25750891808420473,1.014,0,14,0,1,0,0,1,1,100,12.013329898193478,3.178359253630042,1,1,0,1
215,53,12,0,4.271089079976082,-1.803451878111809,1.014,0,14,0,1,0,0,1,1,100,11.836913060210644,3.067356184087693,1,1,0,1
215,54,155,0.048,88.34916441887617,-36.25448524113743,1.014,0,182,0,1,0,0,1,1,100,170.71938568959013,97.64278859372716,1,1,0,1
216,55,155,25.22,71.24299452453852,-39.2864287160337,1.017,0,182,0,1,0,0,1,1,100,110.36493103136308,53.154733544853805,1,1,0,1
218,56,400,137.4,235.78242507763204,38.53593774372712,1.05,0,471,0,1,0,0,1,1,100,366.41235310584307,350.85944227842333,1,1,0,1
221,57,400,108.2,242.42670794948938,-54.06183200655502,1.05,0,471,0,1,0,0,1,1,100,479.73069468513125,183.38231916539365,1,1,0,1
222,58,50,-4.96,15.477920315414668,-10.092798536084594,1.05,0,53,0,1,0,0,1,1,100,64.39643018878996,10.20981564419344,1,1,0,1
222,59,50,-4.96,12.9623738668859,-19.049014788400385,1.05,0,53,0,1,0,0,1,1,100,49.11469485843554,21.215638570421742,1,1,0,1
222,60,50,-4.96,13.75803600102663,-8.789044930227101,1.05,0,53,0,1,0,0,1,1,100,42.94271647231653,7.532491127199564,1,1,0,1
222,61,50,-4.96,12.017004739493132,-16.560706923436374,1.05,0,53,0,1,0,0,1,1,100,52.25882017053664,13.929042757954448,1,1,0,1
222,62,50,-4.96,20.757210813462734,-12.093173579964791,1.05,0,53,0,1,0,0,1,1,100,38.344282421749085,5.24074470530451,1,1,0,1
222,63,50,-4.96,15.003927759081126,-8.272384211700409,1.05,0,53,0,1,0,0,1,1,100,45.51038947654888,37.67038652461785,1,1,0,1
223,64,155,31.79,79.14586011692882,-35.88650056300685,1.05,0,182,0,1,0,0,1,1,100,185.89511946728453,96.74492195285858,1,1,0,1
223,65,155,31.79,76.53699684515595,-56.63590532168746,1.05,0,182,0,1,0,0,1,1,100,181.71859232592396,74.07762280829483,1,1,0,1
223,66,350,71.78,185.9676940832287,-40.16359661007303,1.05,0,412,0,1,0,0,1,1,100,267.1140033006668,114.76776129379869,1,1,0,1
301,67,10,0,12.573515572119504,0.3909942121244967,1.035,0,24,0,1,0,0,1,1,100,18.119718914851546,14.517464106734842,1,1,0,1
301,68,10,0,8.603440361563116,-0.8916457411833107,1.035,0,24,0,1,0,0,1,1,100,24.949785555712882,21.82505410045386,1,1,0,1
301,69,76,14.1,27.79725484829396,-15.019186324672766,1.035,0,89,0,1,0,0,1,1,100,70.72347727008164,20.854027660116564,1,1,0,1
301,70,76,14.1,35.49886982515454,-33.205362278735265,1.035,0,89,0,1,0,0,1,1,100,82.04371445924043,22.159369253069165,1,1,0,1
302,71,10,0,12.078651054296643,-0.6597502660006285,1.035,0,24,0,1,0,0,1,1,100,23.018112974241376,17.734939196193594,1,1,0,1
302,72,10,0,11.2277587284334,2.257664116099477,1.035,0,24,0,1,0,0,1,1,100,18.56531605590135,14.63341546480544,1,1,0,1
302,73,76,7,36.79191915085539,-7.422900754958384,1.035,0,89,0,1,0,0,1,1,100,97.4888539383188,23.646418691314764,1,1,0,1
302,74,76,7,34.25013781758025,-27.810445427894592,1.035,0,89,0,1,0,0,1,1,100,87.61655783262104,27.18476381685585,1,1,0,1
307,75,80,17.2,64.19650953356177,19.965015644207604,1.025,0,118,0,1,0,0,1,1,100,126.34593637194484,65.93932443065569,1,1,0,1
307,76,80,17.2,51.27664789929986,-7.919489163905382,1.025,0,118,0,1,0,0,1,1,100,127.80323320999743,38.072293489240124,1,1,0,1
307,77,80,17.2,55.12107832264155,2.138476892374456,1.025,0,118,0,1,0,0,1,1,100,106.65701280348003,19.268281992990524,1,1,0,1
313,78,95.1,40.7,65.19250037521124,-11.462290495634079,1.02,0,232,0,1,0,0,1,1,100,248.69827177650293,158.41476135508623,1,1,0,1
313,79,95.1,40.7,94.94855549931526,17.862875562161207,1.02,0,232,0,1,0,0,1,1,100,253.58657220881435,93.80652064550901,1,1,0,1
313,80,95.1,40.7,73.18309669941664,-22.513392213732004,1.02,0,232,0,1,0,0,1,1,100,190.0162312873639,72.87846255233741,1,1,0,1
314,81,0,13.68,150.44187475927174,-49.25548647530374,0.98,0,100,0,1,0,0,1,1,100,0.0,0.0,1,1,0,1
315,82,12,0,5.6527445208281275,-0.3249097653664652,1.014,0,14,0,1,0,0,1,1,100,9.77609304562211,2.003667294234037,1,1,0,1
315,83,12,0,5.976493524201214,0.39842404844239354,1.014,0,14,0,1,0,0,1,1,100,9.118611048907042,0.056969762295484117,1,1,0,1
315,84,12,0,6.682123543974011,1.0649731705896546,1.014,0,14,0,1,0,0,1,1,100,14.942670126445591,3.553167621977627,1,1,0,1
315,85,12,0,4.358052320312709,-1.750166648626327,1.014,0,14,0,1,0,0,1,1,100,15.158704396896066,8.383460358045998,1,1,0,1
315,86,12,0,5.076510994601994,-1.199991008453071,1.014,0,14,0,1,0,0,1,1,100,9.97650449965149,1.2897264610603436,1,1,0,1
315,87,155,0.048,75.82006208971143,-34.49424301320687,1.014,0,182,0,1,0,0,1,1,100,173.1798387763556,94.66689735956025,1,1,0,1
316,88,155,25.22,84.05642846599221,-57.96177648426965,1.017,0,182,0,1,0,0,1,1,100,175.64464293210767,92.35165162786143,1,1,0,1
318,89,400,137.4,173.90597799792886,-119.7608057456091,1.05,0,471,0,1,0,0,1,1,100,389.5740055665374,158.41846970841289,1,1,0,1
321,90,400,108.2,237.07043380476534,34.681869039777666,1.05,0,471,0,1,0,0,1,1,100,418.5949461907148,180.54819385521108,1,1,0,1
322,91,50,-4.96,20.655167510360478,-9.065608020592482,1.05,0,53,0,1,0,0,1,1,100,43.10128926998004,29.421295092094923,1,1,0,1
322,92,50,-4.96,11.274391111731529,-20.367570527642965,1.05,0,53,0,1,0,0,1,1,100,38.92069641733542,27.321982684850127,1,1,0,1
322,93,50,-4.96,20.364074610173702,1.917890519462528,1.05,0,53,0,1,0,0,1,1,100,58.694823323749,21.098673550877713,1,1,0,1
322,94,50,-4.96,18.150690272450447,-9.871373831573873,1.05,0,53,0,1,0,0,1,1,100,36.15483980858698,7.074249880229343,1,1,0,1
322,95,50,-4.96,11.40387200936675,-18.67751293629408,1.05,0,53,0,1,0,0,1,1,100,52.094240370206535,11.210952275432653,1,1,0,1
322,96,50,-4.96,18.85697960630059,-12.366442654188724,1.05,0,53,0,1,0,0,1,1,100,57.8375129844062,10.059945085085928,1,1,0,1
323,97,155,31.79,92.18480790033937,-1.4616618109866977,1.05,0,182,0,1,0,0,1,1,100,120.5186987177003,25.911927667120466,1,1,0,1
323,98,155,31.79,62.11977499350905,-77.51391268195584,1.05,0,182,0,1,0,0,1,1,100,138.92037263535894,18.83132643052376,1,1,0,1
323,99,350,71.78,109.72953182179481,-78.1229497632012,1.05,0,412,0,1,0,0,1,1,100,424.07503099413594,179.66354457335555,1,1,0,1
0 / END OF GENERATOR DATA, BEGIN BRANCH DATA
101,102,1,0.003,0.014,0.461,210.0,231.6,240.0,0,0,0,0,1,1,0,1,1
101,103,1,0.055,0.211,0.057,210.0,249.6,264.0,0,0,0,0,1,1,0,1,1
101,105,1,0.022,0.085,0.023,210.0,249.6,264.0,0,0,0,0,1,1,0,1,1
102,104,1,0.033,0.127,0.034,210.0,249.6,264.0,0,0,0,0,1,1,0,1,1
102,106,1,0.05,0.192,0.052,210.0,249.6,264.0,0,0,0,0,1,1,0,1,1
103,109,1,0.031,0.119,0.032,210.0,249.6,264.0,0,0,0,0,1,1,0,1,1
104,109,1,0.027,0.104,0.028,210.0,249.6,264.0,0,0,0,0,1,1,0,1,1
105,110,1,0.023,0.088,0.024,210.0,249.6,264.0,0,0,0,0,1,1,0,1,1
106,110,1,0.014,0.061,2.459,210.0,231.6,240.0,0,0,0,0,1,1,0,1,1
107,108,1,0.016,0.061,0.017,210.0,249.6,264.0,0,0,0,0,1,1,0,1,1
107,203,1,0.042,0.161,0.044,210.0,249.6,264.0,0,0,0,0,1,1,0,1,1
108,109,1,0.043,0.165,0.045,210.0,249.6,264.0,0,0,0,0,1,1,0,1,1
108,110,1,0.043,0.165,0.045,210.0,249.6,264.0,0,0,0,0,1,1,0,1,1
111,113,1,0.006,0.048,0.1,600.0,720.0,750.0,0,0,0,0,1,1,0,1,1
111,114,1,0.005,0.042,0.088,600.0,720.0,750.0,0,0,0,0,1,1,0,1,1
112,113,1,0.006,0.048,0.1,600.0,720.0,750.0,0,0,0,0,1,1,0,1,1
112,123,1,0.012,0.097,0.203,600.0,720.0,750.0,0,0,0,0,1,1,0,1,1
113,123,1,0.011,0.087,0.182,600.0,720.0,750.0,0,0,0,0,1,1,0,1,1
113,215,1,0.01,0.075,0.158,600.0,720.0,750.0,0,0,0,0,1,1,0,1,1
114,116,1,0.005,0.059,0.082,600.0,720.0,750.0,0,0,0,0,1,1,0,1,1
115,116,1,0.002,0.017,0.036,600.0,720.0,750.0,0,0,0,0,1,1,0,1,1
115,121,1,0.006,0.049,0.103,600.0,720.0,750.0,0,0,0,0,1,1,0,1,1
115,121,2,0.006,0.049,0.103,600.0,720.0,750.0,0,0,0,0,1,1,0,1,1
115,124,1,0.007,0.052,0.109,600.0,720.0,750.0,0,0,0,0,1,1,0,1,1
116,117,1,0.003,0.026,0.055,600.0,720.0,750.0,0,0,0,0,1,1,0,1,1
116,119,1,0.003,0.023,0.049,600.0,720.0,750.0,0,0,0,0,1,1,0,1,1
117,118,1,0.002,0.014,0.03,600.0,720.0,750.0,0,0,0,0,1,1,0,1,1
117,122,1,0.014,0.105,0.221,600.0,720.0,750.0,0,0,0,0,1,1,0,1,1
118,121,1,0.003,0.026,0.055,600.0,720.0,750.0,0,0,0,0,1,1,0,1,1
118,121,2,0.003,0.026,0.055,600.0,720.0,750.0,0,0,0,0,1,1,0,1,1
119,120,1,0.005,0.04,0.083,600.0,720.0,750.0,0,0,0,0,1,1,0,1,1
119,120,2,0.005,0.04,0.083,600.0,720.0,750.0,0,0,0,0,1,1,0,1,1
120,123,1,0.003,0.022,0.046,600.0,720.0,750.0,0,0,0,0,1,1,0,1,1
120,123,2,0.003,0.022,0.046,600.0,720.0,750.0,0,0,0,0,1,1,0,1,1
121,122,1,0.009,0.068,0.142,600.0,720.0,750.0,0,0,0,0,1,1,0,1,1
123,217,1,0.01,0.074,0.155,600.0,720.0,750.0,0,0,0,0,1,1,0,1,1
201,202,1,0.003,0.014,0.461,210.0,231.6,240.0,0,0,0,0,1,1,0,1,1
201,203,1,0.055,0.211,0.057,210.0,249.6,264.0,0,0,0,0,1,1,0,1,1
201,205,1,0.022,0.085,0.023,210.0,249.6,264.0,0,0,0,0,1,1,0,1,1
202,204,1,0.033,0.127,0.034,210.0,249.6,264.0,0,0,0,0,1,1,0,1,1
202,206,1,0.05,0.192,0.052,210.0,249.6,264.0,0,0,0,0,1,1,0,1,1
203,209,1,0.031,0.119,0.032,210.0,249.6,264.0,0,0,0,0,1,1,0,1,1
204,209,1,0.027,0.104,0.028,210.0,249.6,264.0,0,0,0,0,1,1,0,1,1
205,210,1,0.023,0.088,0.024,210.0,249.6,264.0,0,0,0,0,1,1,0,1,1
206,210,1,0.014,0.061,2.459,210.0,231.6,240.0,0,0,0,0,1,1,0,1,1
207,208,1,0.016,0.061,0.017,210.0,249.6,264.0,0,0,0,0,1,1,0,1,1
208,209,1,0.043,0.165,0.045,210.0,249.6,264.0,0,0,0,0,1,1,0,1,1
208,210,1,0.043,0.165,0.045,210.0,249.6,264.0,0,0,0,0,1,1,0,1,1
211,213,1,0.006,0.048,0.1,600.0,720.0,750.0,0,0,0,0,1,1,0,1,1
211,214,1,0.005,0.042,0.088,600.0,720.0,750.0,0,0,0,0,1,1,0,1,1
212,213,1,0.006,0.048,0.1,600.0,720.0,750.0,0,0,0,0,1,1,0,1,1
212,223,1,0.012,0.097,0.203,600.0,720.0,750.0,0,0,0,0,1,1,0,1,1
213,223,1,0.011,0.087,0.182,600.0,720.0,750.0,0,0,0,0,1,1,0,1,1
214,216,1,0.005,0.059,0.082,600.0,720.0,750.0,0,0,0,0,1,1,0,1,1
215,216,1,0.002,0.017,0.036,600.0,720.0,750.0,0,0,0,0,1,1,0,1,1
215,221,1,0.006,0.049,0.103,600.0,720.0,750.0,0,0,0,0,1,1,0,1,1
215,221,2,0.006,0.049,0.103,600.0,720.0,750.0,0,0,0,0,1,1,0,1,1
215,224,1,0.007,0.052,0.109,600.0,720.0,750.0,0,0,0,0,1,1,0,1,1
216,217,1,0.003,0.026,0.055,600.0,720.0,750.0,0,0,0,0,1,1,0,1,1
216,219,1,0.003,0.023,0.049,600.0,720.0,750.0,0,0,0,0,1,1,0,1,1
217,218,1,0.002,0.014,0.03,600.0,720.0,750.0,0,0,0,0,1,1,0,1,1
217,222,1,0.014,0.105,0.221,600.0,720.0,750.0,0,0,0,0,1,1,0,1,1
218,221,1,0.003,0.026,0.055,600.0,720.0,750.0,0,0,0,0,1,1,0,1,1
218,221,2,0.003,0.026,0.055,600.0,720.0,750.0,0,0,0,0,1,1,0,1,1
219,220,1,0.005,0.04,0.083,600.0,720.0,750.0,0,0,0,0,1,1,0,1,1
219,220,2,0.005,0.04,0.083,600.0,720.0,750.0,0,0,0,0,1,1,0,1,1
220,223,1,0.003,0.022,0.046,600.0,720.0,750.0,0,0,0,0,1,1,0,1,1
220,223,2,0.003,0.022,0.046,600.0,720.0,750.0,0,0,0,0,1,1,0,1,1
221,222,1,0.009,0.068,0.142,600.0,720.0,750.0,0,0,0,0,1,1,0,1,1
301,302,1,0.003,0.014,0.461,210.0,231.6,240.0,0,0,0,0,1,1,0,1,1
301,303,1,0.055,0.211,0.057,210.0,249.6,264.0,0,0,0,0,1,1,0,1,1
301,305,1,0.022,0.085,0.023,210.0,249.6,264.0,0,0,0,0,1,1,0,1,1
302,304,1,0.033,0.127,0.034,210.0,249.6,264.0,0,0,0,0,1,1,0,1,1
302,306,1,0.05,0.192,0.052,210.0,249.6,264.0,0,0,0,0,1,1,0,1,1
303,309,1,0.031,0.119,0.032,210.0,249.6,264.0,0,0,0,0,1,1,0,1,1
304,309,1,0.027,0.104,0.028,210.0,249.6,264.0,0,0,0,0,1,1,0,1,1
305,310,1,0.023,0.088,0.024,210.0,249.6,264.0,0,0,0,0,1,1,0,1,1
306,310,1,0.014,0.061,2.459,210.0,231.6,240.0,0,0,0,0,1,1,0,1,1
307,308,1,0.016,0.061,0.017,210.0,249.6,264.0,0,0,0,0,1,1,0,1,1
308,309,1,0.043,0.165,0.045,210.0,249.6,264.0,0,0,0,0,1,1,0,1,1
308,310,1,0.043,0.165,0.045,210.0,249.6,264.0,0,0,0,0,1,1,0,1,1
311,313,1,0.006,0.048,0.1,600.0,720.0,750.0,0,0,0,0,1,1,0,1,1
311,314,1,0.005,0.042,0.088,600.0,720.0,750.0,0,0,0,0,1,1,0,1,1
312,313,1,0.006,0.048,0.1,600.0,720.0,750.0,0,0,0,0,1,1,0,1,1
312,323,1,0.012,0.097,0.203,600.0,720.0,750.0,0,0,0,0,1,1,0,1,1
313,323,1,0.011,0.087,0.182,600.0,720.0,750.0,0,0,0,0,1,1,0,1,1
314,316,1,0.005,0.059,0.082,600.0,720.0,750.0,0,0,0,0,1,1,0,1,1
315,316,1,0.002,0.017,0.036,600.0,720.0,750.0,0,0,0,0,1,1,0,1,1
315,321,1,0.006,0.049,0.103,600.0,720.0,750.0,0,0,0,0,1,1,0,1,1
315,321,2,0.006,0.049,0.103,600.0,720.0,750.0,0,0,0,0,1,1,0,1,1
315,324,1,0.007,0.052,0.109,600.0,720.0,750.0,0,0,0,0,1,1,0,1,1
316,317,1,0.003,0.026,0.055,600.0,720.0,750.0,0,0,0,0,1,1,0,1,1
316,319,1,0.003,0.023,0.049,600.0,720.0,750.0,0,0,0,0,1,1,0,1,1
317,318,1,0.002,0.014,0.03,600.0,720.0,750.0,0,0,0,0,1,1,0,1,1
317,322,1,0.014,0.105,0.221,600.0,720.0,750.0,0,0,0,0,1,1,0,1,1
318,223,1,0.013,0.104,0.218,600.0,720.0,750.0,0,0,0,0,1,1,0,1,1
318,321,1,0.003,0.026,0.055,600.0,720.0,750.0,0,0,0,0,1,1,0,1,1
318,321,2,0.003,0.026,0.055,600.0,720.0,750.0,0,0,0,0,1,1,0,1,1
319,320,1,0.005,0.04,0.083,600.0,720.0,750.0,0,0,0,0,1,1,0,1,1
319,320,2,0.005,0.04,0.083,600.0,720.0,750.0,0,0,0,0,1,1,0,1,1
320,323,1,0.003,0.022,0.046,600.0,720.0,750.0,0,0,0,0,1,1,0,1,1
320,323,2,0.003,0.022,0.046,600.0,720.0,750.0,0,0,0,0,1,1,0,1,1
321,322,1,0.009,0.068,0.142,600.0,720.0,750.0,0,0,0,0,1,1,0,1,1
323,325,1,0,0.009,0,866.4,1071.6,1071.6,0,0,0,0,1,1,0,1,1
0 / END OF BRANCH DATA, BEGIN TRANSFORMER DATA
  103 ,  124 , 0,  1 , 1, 1, 1, 0, 0, 2, '            ',  1 , 1, 1
   0.002000 ,  0.084000 ,  100.000000
   1.015000 , 0,  0.000000 ,  400.000000 ,  510.000000 ,  600.000000 , 0, 0,  1.10 ,  0.90 ,  1.10 ,  0.90 , 33, 0, 0, 0
   1.000000, 0
  109 ,  111 , 0,  1 , 1, 1, 1, 0, 0, 2, '            ',  1 , 1, 1
   0.002000 ,  0.084000 ,  100.000000
   1.030000 , 0,  0.000000 ,  400.000000 ,  510.000000 ,  600.000000 , 0, 0,  1.10 ,  0.90 ,  1.10 ,  0.90 , 33, 0, 0, 0
   1.000000, 0
  109 ,  112 , 0,  1 , 1, 1, 1, 0, 0, 2, '            ',  1 , 1, 1
   0.002000 ,  0.084000 ,  100.000000
   1.030000 , 0,  0.000000 ,  400.000000 ,  510.000000 ,  600.000000 , 0, 0,  1.10 ,  0.90 ,  1.10 ,  0.90 , 33, 0, 0, 0
   1.000000, 0
  110 ,  111 , 0,  1 , 1, 1, 1, 0, 0, 2, '            ',  1 , 1, 1
   0.002000 ,  0.084000 ,  100.000000
   1.015000 , 0,  0.000000 ,  400.000000 ,  510.000000 ,  600.000000 , 0, 0,  1.10 ,  0.90 ,  1.10 ,  0.90 , 33, 0, 0, 0
   1.000000, 0
  110 ,  112 , 0,  1 , 1, 1, 1, 0, 0, 2, '            ',  1 , 1, 1
   0.002000 ,  0.084000 ,  100.000000
   1.015000 , 0,  0.000000 ,  400.000000 ,  510.000000 ,  600.000000 , 0, 0,  1.10 ,  0.90 ,  1.10 ,  0.90 , 33, 0, 0, 0
   1.000000, 0
  203 ,  224 , 0,  1 , 1, 1, 1, 0, 0, 2, '            ',  1 , 1, 1
   0.002000 ,  0.084000 ,  100.000000
   1.015000 , 0,  0.000000 ,  400.000000 ,  510.000000 ,  600.000000 , 0, 0,  1.10 ,  0.90 ,  1.10 ,  0.90 , 33, 0, 0, 0
   1.000000, 0
  209 ,  211 , 0,  1 , 1, 1, 1, 0, 0, 2, '            ',  1 , 1, 1
   0.002000 ,  0.084000 ,  100.000000
   1.030000 , 0,  0.000000 ,  400.000000 ,  510.000000 ,  600.000000 , 0, 0,  1.10 ,  0.90 ,  1.10 ,  0.90 , 33, 0, 0, 0
   1.000000, 0
  209 ,  212 , 0,  1 , 1, 1, 1, 0, 0, 2, '            ',  1 , 1, 1
   0.002000 ,  0.084000 ,  100.000000
   1.030000 , 0,  0.000000 ,  400.000000 ,  510.000000 ,  600.000000 , 0, 0,  1.10 ,  0.90 ,  1.10 ,  0.90 , 33, 0, 0, 0
   1.000000, 0
  210 ,  211 , 0,  1 , 1, 1, 1, 0, 0, 2, '            ',  1 , 1, 1
   0.002000 ,  0.084000 ,  100.000000
   1.015000 , 0,  0.000000 ,  400.000000 ,  510.000000 ,  600.000000 , 0, 0,  1.10 ,  0.90 ,  1.10 ,  0.90 , 33, 0, 0, 0
   1.000000, 0
  210 ,  212 , 0,  1 , 1, 1, 1, 0, 0, 2, '            ',  1 , 1, 1
   0.002000 ,  0.084000 ,  100.000000
   1.015000 , 0,  0.000000 ,  400.000000 ,  510.000000 ,  600.000000 , 0, 0,  1.10 ,  0.90 ,  1.10 ,  0.90 , 33, 0, 0, 0
   1.000000, 0
  303 ,  324 , 0,  1 , 1, 1, 1, 0, 0, 2, '            ',  1 , 1, 1
   0.002000 ,  0.084000 ,  100.000000
   1.015000 , 0,  0.000000 ,  400.000000 ,  510.000000 ,  600.000000 , 0, 0,  1.10 ,  0.90 ,  1.10 ,  0.90 , 33, 0, 0, 0
   1.000000, 0
  309 ,  311 , 0,  1 , 1, 1, 1, 0, 0, 2, '            ',  1 , 1, 1
   0.002000 ,  0.084000 ,  100.000000
   1.030000 , 0,  0.000000 ,  400.000000 ,  510.000000 ,  600.000000 , 0, 0,  1.10 ,  0.90 ,  1.10 ,  0.90 , 33, 0, 0, 0
   1.000000, 0
  309 ,  312 , 0,  1 , 1, 1, 1, 0, 0, 2, '            ',  1 , 1, 1
   0.002000 ,  0.084000 ,  100.000000
   1.030000 , 0,  0.000000 ,  400.000000 ,  510.000000 ,  600.000000 , 0, 0,  1.10 ,  0.90 ,  1.10 ,  0.90 , 33, 0, 0, 0
   1.000000, 0
  310 ,  311 , 0,  1 , 1, 1, 1, 0, 0, 2, '            ',  1 , 1, 1
   0.002000 ,  0.084000 ,  100.000000
   1.015000 , 0,  0.000000 ,  400.000000 ,  510.000000 ,  600.000000 , 0, 0,  1.10 ,  0.90 ,  1.10 ,  0.90 , 33, 0, 0, 0
   1.000000, 0
  310 ,  312 , 0,  1 , 1, 1, 1, 0, 0, 2, '            ',  1 , 1, 1
   0.002000 ,  0.084000 ,  100.000000
   1.015000 , 0,  0.000000 ,  400.000000 ,  510.000000 ,  600.000000 , 0, 0,  1.10 ,  0.90 ,  1.10 ,  0.90 , 33, 0, 0, 0
   1.000000, 0
0 / END OF TRANSFORMER DATA, BEGIN AREA DATA
0 / END OF AREA DATA, BEGIN TWO-TERMINAL DC DATA
0 / END OF TWO-TERMINAL DC DATA, BEGIN VSC DC LINE DATA
0 / END OF VSC DC LINE DATA, BEGIN SWITCHED SHUNT DATA
0 / END OF SWITCHED SHUNT DATA, BEGIN IMPEDANCE CORRECTION DATA
0 / END OF IMPEDANCE CORRECTION DATA, BEGIN MULTI-TERMINAL DC DATA
0 / END OF MULTI-TERMINAL DC DATA, BEGIN MULTI-SECTION LINE DATA
0 / END OF MULTI-SECTION LINE DATA, BEGIN ZONE DATA
0 / END OF ZONE DATA, BEGIN INTER-AREA TRANSFER DATA
0 / END OF INTER-AREA TRANSFER DATA, BEGIN OWNER DATA
0 / END OF OWNER DATA, BEGIN FACTS CONTROL DEVICE DATA
0 / END OF FACTS CONTROL DEVICE DATA
0 / END OF SWITCHED SHUNT DATA, BEGIN GNE DATA
0 / END OF GNE DATA, BEGIN INDUCTION MACHINE DATA
0 / END OF INDUCTION MACHINE DATA
Q 
